20

O       1.23188120       3.20640634       0.03070512 
C       0.02178698       3.14380191       0.68025998 
C      -1.08727181       2.46108445      -0.15511652 
C      -1.17618444       1.00535002       0.01612426 
C       0.03965507       0.22057012      -0.46381459 
C       1.30363868       0.53747433       0.24968626 
C       2.02031534       1.75195713      -0.26140356 
H       0.12554152       2.61111165       1.66045074 
H      -0.29945880       4.19907171       0.93154397 
H      -2.05033758       2.92593538       0.12657935 
H      -0.92360283       2.72389497      -1.23035499 
H      -1.34948736       0.76569276       1.10135727 
H      -2.05991462       0.63245893      -0.50813459 
H      -0.19115697      -0.85427774      -0.35176357 
H       0.16440672       0.38750510      -1.55565789 
H       1.12684484       0.62850820       1.33076194 
H       1.95158414      -0.34789532       0.20145180 
H       3.04336940       1.11388026      -0.76838093 
H       1.87853185       1.95792074      -1.33101667 
H       2.80937869       2.10571218       0.36672646 
