25

C       0.19386585       0.27816905      -0.16568339 
H      -0.24202424       0.36724353      -1.15987384 
H      -0.31556566       0.74290797       0.67531485 
C       1.57772388      -0.24049508      -0.00624738 
C       2.32625160       1.06839936      -0.14126863 
C       3.08262774       1.41349724      -1.40254098 
C       2.23041933       1.47732042      -2.67897198 
C       1.22769756       2.63844388      -2.68369535 
C       1.85883814       4.04101091      -2.69063193 
C       2.72584323       4.31111322      -3.91270662 
H       1.73560880      -0.67364350       0.99095920 
H       1.86210196      -0.95590346      -0.80290587 
H       1.01955537       1.34232267      -0.31469060 
H       2.39912296       1.73439697       0.69788486 
H       3.60623285       2.36731526      -1.26018985 
H       3.86376706       0.65998759      -1.58011431 
H       2.89055886       1.55169746      -3.55140880 
H       1.68213974       0.54076975      -2.78599654 
H       0.57222833       2.53638325      -3.55933068 
H       0.59335883       2.54504801      -1.79132408 
H       1.05217215       4.78201382      -2.64966906 
H       2.45325484       4.18331987      -1.78195061 
H       2.16821761       4.13505171      -4.83343790 
H       3.07206824       5.34694361      -3.92072859 
H       3.60395115       3.66448134      -3.92311076 
