22

C       1.17174633       3.57886339      -2.34771322 
C       0.82158451       2.24989685      -1.74837246 
H       0.88365918       1.44488660      -2.50940348 
C      -0.42953931       2.21831478      -0.89619226 
C      -0.93223902       0.74960062      -0.70675605 
C       0.23047313      -0.25216909      -0.64694158 
C       1.47392109       0.37223967       0.01850355 
C       2.11385857       1.48516442      -0.75573723 
H       0.51926979       3.88797848      -3.16698124 
H       2.18298467       3.56479068      -2.76365372 
H       1.11362152       4.37469693      -1.60796028 
H      -0.24317347       2.63035268       0.09304661 
H      -1.21741300       2.84819223      -1.31340577 
H      -1.53294030       0.68779170       0.20755686 
H      -1.58637159       0.48983768      -1.53327980 
H      -0.06781880      -1.13597154      -0.09654162 
H       0.50289950      -0.57489611      -1.64827380 
H       1.18492524       0.73555490       1.01305694 
H       2.16965253      -0.45041840       0.18105454 
H       3.29781050       1.27005085      -0.24300364 
H       2.64909036       1.21713364      -1.63126096 
H       2.24296776       2.40912193      -0.24385942 
