20

C      -0.61468480       1.06231250      -0.10721686 
H      -1.20337998       1.46900497      -0.90954500 
H      -0.99824323       1.24768808       0.89947915 
C       0.16401660      -0.14077317      -0.32928576 
C       1.56892784       0.00688839       0.31024123 
C       2.13803766       1.38101791      -0.10710918 
C       1.09893519       2.43740190       0.05907301 
C       0.92896130       3.09272393       1.21260204 
C       0.76701651       4.58467430       1.32469373 
H      -0.31617457      -1.02550558       0.08846811 
H       0.28473463      -0.33486214      -1.41484069 
H       1.47573257      -0.02986659       1.39293805 
H       2.22753478      -0.79645724       0.00443996 
H       3.03234354       1.59611411       0.49016702 
H       2.45497085       1.32756886      -1.15638667 
H       0.77639019       2.93251303      -0.86998623 
H       0.83022249       2.53467142       2.15372458 
H      -0.19867943       4.84525382       1.76323197 
H       1.52306055       5.02876702       1.97517056 
H       0.83825879       5.06198821       0.34882155 
