18

O       1.01325890       3.05725805       0.00320950 
O      -0.20625892       2.51810263      -0.53452675 
C      -0.60266394       1.32376632       0.07929820 
C       0.21187433       0.06591079      -0.42616097 
C       1.51499614      -0.12813925       0.32682947 
C       2.49328195       0.98721413       0.11297783 
C       3.20226560       1.00535371      -1.19918993 
H      -0.50623902       1.40874677       1.16630680 
H      -1.65812655       1.16788675      -0.13143804 
H      -0.41393009      -0.81153593      -0.30035217 
H       0.39993889       0.17583788      -1.49107768 
H       1.29549406      -0.22108459       1.40140794 
H       1.96591528      -1.09342051       0.02399700 
H       1.71982915       2.07854018       0.10602260 
H       3.14110344       1.13885811       0.93198051 
H       2.50129355       0.93943436      -2.03308610 
H       3.78692560       1.90930559      -1.31910871 
H       3.88940979       0.15730823      -1.28812947 
