16

C       1.46688378      -0.58246097      -0.13973167 
H       0.74547778      -0.30244301       0.61253912 
H       1.51744203      -1.59304879      -0.47613345 
C       2.64185788       0.32731114      -0.38414582 
C       2.71843740       1.37586484      -0.07078499 
O       2.26400066       1.71063639       1.34711919 
C       1.35396586       2.63097047       1.43676200 
O       1.01427070       3.32543755       0.35843178 
C       0.71120189       2.84633953       2.72945949 
H       3.69834918      -0.43283196       0.71145500 
H       3.28744652      -0.05855026      -1.21653650 
H       3.75243254       1.92094639      -0.18161956 
H       2.03900751       2.21242038      -0.57159498 
H       1.16227593       2.23079349       3.50408004 
H       0.78101758       3.89060086       3.02873738 
H      -0.34348614       2.60929487       2.67528971 
