18

O      -0.27359733       0.62472712      -0.43008176 
C       1.00753409       0.34266554      -0.37833546 
C       1.54866327       1.32412300       0.42216073 
C       2.51763111       2.30813584       0.07684898 
C       2.20598664       3.10458062      -1.23136363 
C       0.96088007       3.98288525      -1.13841607 
C       1.09163036       5.12491638      -0.15003586 
H       1.40765650      -0.57789670      -0.84272849 
H       0.23949822       1.58624238       0.37505720 
H       2.66664697       3.03504211       0.89664269 
H       3.49976647       1.81998873      -0.06456026 
H       3.07298049       3.71888610      -1.46701485 
H       2.08405313       2.39130228      -2.04425897 
H       0.74647503       4.38960659      -2.13238829 
H       0.09402974       3.35875506      -0.86944776 
H       1.92239655       5.78095224      -0.41674203 
H       0.18137093       5.72561755      -0.13104839 
H       1.26986944       4.75711645       0.86006930 
