14

C       1.04338232       0.05256865      -0.15518889 
H       0.12641526       0.05930773       0.46053879 
H       1.31998980      -0.90260083      -0.61815153 
C       1.85700847       1.19602443      -0.27775540 
O       2.19918387       1.90846320       1.55356897 
C       0.98378216       2.03175700       2.36390533 
C      -0.03105685       2.95219372       1.72009972 
H       2.86803548       1.06679541      -0.56283356 
H       1.41444185       2.09081416      -0.62739140 
H       0.57007844       1.02605898       2.50834043 
H       1.30325167       2.41724803       3.36105032 
H      -0.38688057       2.54693161       0.78735846 
H      -0.88610008       3.08770771       2.38146013 
H       0.40207837       3.91878742       1.52635857 
