25

C      -1.14326298       2.39184965       0.05531130 
C       0.02318387       1.55706750      -0.39645829 
H       0.29691492       1.87588369      -1.44626295 
C      -0.10810320       0.02229348      -0.15948054 
C       1.44688426      -0.14196176       0.19184823 
C       1.74957738       1.35663868       0.08660672 
C       1.80401830       2.21783107       1.32056505 
C       2.50718632       1.64450503       2.56368509 
C       4.02149271       1.56301653       2.43606163 
H      -2.00381027       2.33220768      -0.60602789 
H      -0.87869845       3.45874660       0.09161402 
H      -1.49418753       2.08967582       1.03763714 
H      -0.76972013      -0.23017137       0.64096900 
H      -0.34693906      -0.50686798      -1.02017974 
H       1.60399708      -0.54437223       1.15134371 
H       1.96656935      -0.73400094      -0.54392637 
H       3.02951471       1.09637704       0.13016778 
H       2.07709201       1.79135061      -0.82530174 
H       2.26714688       3.18777924       1.05585751 
H       0.79098024       2.47520809       1.64683043 
H       2.25445364       2.28315139       3.42803133 
H       2.10003311       0.65252164       2.79333674 
H       4.45481670       2.54743727       2.25613178 
H       4.46661764       1.15875814       3.35251723 
H       4.30037412       0.92364914       1.60237428 
