19

C       2.29395979       1.63201458       0.98077125 
H       2.60592837       0.74085659       1.48530394 
H       3.06307521       2.32443904       0.85586323 
C       1.45526141       1.44491684      -0.15415747 
C       0.77480331       0.22664119      -0.40530019 
C      -0.00882439      -0.22155044       0.82858536 
O      -0.37044251       0.98139482       1.61394000 
C       0.10401725       2.17910924       1.13350357 
O       0.47568794       3.07286024       2.22580455 
C      -0.87018814       2.92988400       0.14096030 
H       1.32445636       2.16368258       1.59211464 
H       1.53650697       2.10552677      -0.90150273 
H       0.07173437       0.34412529      -1.28184862 
H       1.46263004      -0.61365586      -0.70516185 
H      -0.91800273      -0.74695664       0.58677629 
H       0.59498773      -0.86023260       1.48699632 
H      -1.18697910       2.28105723      -0.62601463 
H      -1.72978605       3.26705934       0.70460805 
H      -0.38908541       3.77105497      -0.27619092 
