17

C       1.51651139       0.30698696       0.68744745 
H       0.92410581      -0.41624707       1.26617997 
H       1.11443058       1.34490529       0.65385477 
C       2.88257019       0.07463959       0.45160114 
C       3.16177354      -1.06280851      -1.40991763 
O       2.55945740      -0.47525974      -2.51255539 
C       1.05867359      -0.45894423      -2.45326882 
C       0.49880796      -1.78613985      -2.91960665 
H       3.34260436       0.35788455      -0.49421200 
H       3.42296954      -0.56976290       1.04883067 
H       4.14267334      -1.16847003      -1.53610865 
H       2.64188390      -1.83982437      -0.99622989 
H       0.77451956      -0.22747415      -1.41620046 
H       0.74633956       0.36523039      -3.10516872 
H       0.86738190      -2.60577200      -2.30102275 
H      -0.61243924      -1.78171250      -2.85612275 
H       0.77701135      -1.98822748      -3.95134163 
