9

O      -0.55510587       0.39131634       0.72749765 
C       0.50704541      -0.33653516       0.43589756 
C       1.55325235       0.44271610      -0.06759978 
C       1.24102888       1.85039930       0.08203034 
H       0.52169095      -1.39537597       0.75551325 
H       2.25554230       0.08723485      -0.81425515 
H      -0.00929244       1.44188627       0.44234877 
H       1.58028501       2.33040952       1.00096272 
H       1.43958839       2.49370326      -0.77304340 
