17

C      -0.40148982       2.88245551      -1.72163170 
H       0.15722045       2.60679824      -2.62577581 
H      -0.22950430       3.93111238      -1.46172561 
C      -1.84835924       2.51943144      -1.78722959 
C      -2.00769429       1.00293165      -1.95421473 
O      -1.40268746       0.34671927      -0.74566765 
C       0.09162901       0.53942301      -0.71416178 
C       0.44667101       1.95371835      -0.43396801 
H      -2.37719589       2.83602984      -0.88679609 
H      -2.37955710       3.01032929      -2.62407274 
H      -3.04552952       0.67608525      -1.97337961 
H      -1.48454972       0.64002086      -2.84265251 
H       0.32820088      -0.19189900       0.08092076 
H       0.55377231       0.18182612      -1.64425103 
H       1.22131508       1.74203193       0.59850837 
H       1.35542496       2.29732274      -0.85137180 
H      -0.13176716       2.43764828       0.30859989 
