19

C       1.06561174      -0.02595545      -0.17093442 
H       0.40632601      -0.21489271       0.66884160 
H       1.15317807      -0.84504364      -0.87678655 
C       1.72651587       1.14066001      -0.33016768 
C       2.24256681       1.92867307       1.59778151 
C       3.11806077       1.01447508       2.25710998 
C       4.47863575       0.79175917       1.59312737 
C       5.28783344       2.06976892       1.40396475 
H       2.70298742       1.12621424      -0.69965303 
H       1.18912963       2.00474105      -0.65148673 
H       2.64188128       2.80615117       1.25450632 
H       1.29133835       1.99644644       1.96054625 
H       3.30486567       1.33921496       3.26948937 
H       2.62536930       0.02863250       2.38363511 
H       5.05013205       0.09336094       2.19880662 
H       4.33323472       0.31328747       0.62432185 
H       5.44231643       2.58362875       2.35603740 
H       6.26895569       1.84674194       0.97596268 
H       4.77911648       2.76266353       0.72910784 
