25

C       0.90389154      -0.61828203      -0.09772219 
C       0.19488043       0.17216295      -1.11054849 
H      -0.53497748      -0.34860461      -1.74915900 
C       0.71040136       1.51214796      -1.55630311 
C       0.35323130       2.69744046      -0.60440774 
C       0.89695335       2.54283338       0.81694519 
C       2.42630720       2.50463798       0.91937571 
C       3.13200730       3.79504182       0.46620983 
C       2.79732860       5.00230002       1.33181929 
H       1.18574362      -0.69370869      -1.42433225 
H       0.44917685      -0.61606786       0.88467243 
H       1.93951326      -0.41447334       0.06703698 
H       1.80493169       1.48944416      -1.66640057 
H       0.29627551       1.73633571      -2.54174948 
H       0.73187632       3.62170843      -1.05171472 
H      -0.73387438       2.79443032      -0.56048449 
H       0.51080145       3.36642935       1.43205245 
H       0.49536523       1.61732938       1.25092296 
H       2.70222591       2.29434643       1.96054256 
H       2.80702957       1.66452259       0.32487298 
H       4.21743074       3.62532152       0.48857485 
H       2.87585720       4.00863443      -0.57578421 
H       3.04184544       4.81077835       2.37930972 
H       3.35969608       5.88038887       1.00819544 
H       1.73512826       5.24539145       1.27654725 
