14

O       0.17083411       0.53974946       0.73233566 
C       1.28820544       0.52286069      -0.09995044 
C       1.10491521       1.93560572      -0.60063000 
C       0.34982996       2.22825780      -1.85007215 
C      -0.87107401       1.35216430      -2.07465541 
H       2.22161969       0.40657182       0.52997234 
H       1.24503278      -0.28954044      -0.84993679 
H       0.12455233       1.66708107       0.29449847 
H       1.42550871       2.76944891      -0.01077535 
H       0.04631720       3.28411367      -1.85253951 
H       1.01425111       2.11633605      -2.72270122 
H      -1.49703060       1.36040306      -1.18609126 
H      -1.46633944       1.70728085      -2.92081071 
H      -0.58476447       0.31552121      -2.27099626 
