16

C      -0.47145547       2.54273203       0.61571824 
H      -1.13140377       3.25253547       0.09182325 
H       0.00401609       3.07860472       1.41950310 
C      -1.11519244       1.28910723       0.98099332 
C      -0.60081243       0.37915798      -0.04775055 
O       1.26592206      -0.18274723       0.36608868 
C       1.97912956       1.05244151       0.56051612 
O       0.48056603       2.04044105      -0.31581686 
C       3.12570234       1.30264245      -0.00021321 
H      -0.83265266       0.95322014       1.96861041 
H      -2.25752062       1.31839158       0.99231876 
H      -0.85044225      -0.62311670       0.12710343 
H      -0.78538655       0.58447465      -0.99393746 
H       3.98761208       0.65265387       0.48737376 
H       3.19621313       1.04810720      -1.10203362 
H       3.46223735       2.31314908       0.09958099 
