22

C       1.07673714      -0.01561737      -0.18087531 
H       0.39742015      -0.19536407       0.64436531 
H       1.17739323      -0.83829705      -0.88031020 
C       1.74984284       1.14563668      -0.32598337 
C       2.22858580       1.91240963       1.62010234 
C       3.10561703       0.99048205       2.26839770 
C       4.48049448       0.80198332       1.62365015 
C       5.27567724       2.10069929       1.42680488 
C       5.56775290       2.83699494       2.73132896 
H       2.73587240       1.12309053      -0.67399972 
H       1.22650442       2.01215289      -0.65822952 
H       2.62026276       2.80069053       1.29916273 
H       1.27270471       1.96028352       1.97224235 
H       3.26463566       1.28196815       3.29342689 
H       2.62438210      -0.00607434       2.35322359 
H       5.06123215       0.11703316       2.23566051 
H       4.35559469       0.32001009       0.65357283 
H       6.22486642       1.86127428       0.92427829 
H       4.72825555       2.76737041       0.74542192 
H       6.10660175       2.19481529       3.42840645 
H       6.17462207       3.72283300       2.54720028 
H       4.64455169       3.15545475       3.21519168 
