20

O      -0.17339779      -0.57832118       0.28836197 
C       0.00681728       0.30095805       1.45260781 
C       1.18656687      -0.13654561       2.30468359 
C       2.53434330      -0.09865941       1.51931090 
C       2.82029649       1.21764927       0.89009066 
H       3.11224064       2.05865380       1.56507320 
C       2.76485743       1.43369054      -0.47505136 
C       4.82958297       1.04197649      -1.12283983 
H       0.65469944      -0.53636068      -0.24663973 
H       0.15702786       1.33144219       1.09358800 
H      -0.93409367       0.26041324       2.02475667 
H       1.25993154       0.51992336       3.17522307 
H       1.02186354      -1.16317735       2.68724605 
H       3.33679512      -0.36109628       2.23528051 
H       2.51901745      -0.88755887       0.74993249 
H       2.51154277       0.63667571      -1.09460284 
H       2.46493575       2.34035781      -0.80678770 
H       4.28226873       1.98186672      -1.00795806 
H       5.20310957       0.60280056      -0.28782357 
H       4.69602398       0.51513985      -1.94873307 
