22

C       1.42980021       3.41922272      -1.55053941 
H       1.52556400       3.59916665      -2.61733169 
H       2.15956202       4.04819030      -1.03284851 
C       0.06511503       3.53551951      -0.95343280 
C      -0.70175809       2.22891868      -1.21195496 
C      -0.85574609       1.20616008      -0.06834076 
C       0.13449257       0.02648404      -0.11038756 
C       1.61770738       0.40374420       0.11369337 
C       2.31710531       0.91284396      -1.09368754 
H      -0.25984275       3.64110856       0.08953219 
H      -0.04072907       4.63744869      -1.04835434 
H      -1.71801306       2.56746395      -1.43393573 
H      -0.31490183       1.73693190      -2.10960597 
H      -0.75521894       1.74341403       0.87108358 
H      -1.86130887       0.79489356      -0.06422634 
H      -0.15811630      -0.67744548       0.66251507 
H       0.03667002      -0.49608661      -1.05604569 
H       1.68981599       1.13515886       0.93598659 
H       2.13978308      -0.49543429       0.47962592 
H       1.87408634       2.15124262      -1.35911550 
H       3.35352141       1.04834057      -0.94820310 
H       2.11925339       0.35984703      -1.96958123 
