15

O       0.91894709       0.01354455      -0.06118987 
C       2.23120370       0.04370856      -0.11789912 
C       3.07797097      -0.63945788       0.80704874 
C       4.45747768      -0.60815621       0.74503288 
C       5.36681686       0.12364747       2.60902809 
C       4.82358684      -0.51767108       3.74159073 
H       2.68477954       0.64309608      -0.93578518 
H       2.57871754      -1.24112049       1.59306648 
H       5.05860331      -1.12187070       1.49390818 
H       4.94053381      -0.03557631       0.06548173 
H       6.34588216      -0.03629615       2.39555737 
H       5.03681907       1.08469073       2.40683855 
H       5.08608842      -1.55549390       3.80496473 
H       5.19765880      -0.05280209       4.71299257 
H       3.73260469      -0.43714454       3.78950530 
