12

O       0.99884744       0.00584269       0.04295305 
C       2.30377393      -0.06851945       0.03804221 
C       3.14795726       0.78409418       0.82782929 
C       4.52091966       0.70723455       0.81678756 
C       5.41741192       2.64966805       0.30430649 
H       2.76622051      -0.82675789      -0.62769347 
H       2.64461093       1.50989408       1.48175492 
H       5.11512281       1.40098122       1.41753212 
H       5.00394740       0.10087018       0.20601379 
H       5.01093258       3.28954442       0.93813790 
H       6.39353883       2.48118183       0.39403032 
H       5.04794836       2.66103763      -0.64215137 
