15

O       0.32553320       2.09625232      -1.37582937 
C       0.71063004       1.01905797      -0.48300743 
C       1.20806648      -0.16053986      -0.94216686 
C       2.24232728       0.38776824      -1.60645217 
C       2.34240325       0.56154722      -3.08139392 
C       1.09130945       0.13115017      -3.84096173 
H       0.15673275       1.10563022       0.51499971 
H       1.22154113      -1.07531182      -0.37710989 
H       1.57430309       1.94829511      -0.76260817 
H       3.09549311       0.68437566      -1.08067243 
H       2.56970835       1.61460559      -3.31842461 
H       3.22497896       0.00467131      -3.46015167 
H       0.23223684       0.68861055      -3.48538081 
H       1.21040041       0.31408327      -4.91022530 
H       0.89675309      -0.92503237      -3.69601322 
