21

C       0.15498804       2.00965751       0.34506562 
H      -0.31689146       2.66877898       1.08135134 
H      -0.08310265       2.30386737      -0.68356083 
C       0.08014262       0.54468714       0.62090223 
C       1.50266419      -0.03213923       0.45395878 
O       1.63246604      -0.69436811      -0.89804796 
O       0.72734055      -1.87851770      -0.85356805 
C       2.48138183       1.10020954       0.56832127 
C       3.54738136       1.27683194      -0.48007724 
C       3.01703351       1.78898316      -1.81900937 
H      -0.25917415       0.36301418       1.64134161 
H      -0.62148088       0.01192750      -0.04504090 
H       1.69455567      -0.82603877       1.18387261 
H       0.90693207      -2.18888125      -1.78361458 
H       1.50769784       2.02167135       0.44385958 
H       2.83967843       1.22705261       1.55074349 
H       4.31185905       1.97289196      -0.10402077 
H       4.05922717       0.31598097      -0.64721050 
H       2.56280390       2.76780554      -1.70210279 
H       3.82304878       1.87151522      -2.54509740 
H       2.26232303       1.11144972      -2.21535359 
