16

C       1.08557493      -0.12218191       0.46490920 
H       0.35071797      -0.80516959       0.91990768 
H       0.73762999       0.85289411       0.05115569 
C       2.42920481      -0.46492631       0.41603741 
C       3.22722112      -0.49900069      -1.63262986 
C       2.64231868       0.57162232      -2.33791823 
O       3.22156562       1.84771199      -1.94274372 
C       2.43260940       2.72900909      -1.44332229 
O       1.15263427       2.53321667      -1.24582110 
H       3.15521714       0.18012680      -0.07600068 
H       2.76130106      -1.38017682       0.76463196 
H       4.21561688      -0.46500251      -1.47723256 
H       2.86979093      -1.43304805      -1.85107820 
H       2.80437987       0.49436611      -3.46516841 
H       1.53429058       0.64669919      -2.19967607 
H       2.88243123       3.67645549      -1.16223642 
