17

C       0.85031333      -0.25429880      -0.32017776 
H       0.12860367      -0.56398784      -1.09354506 
H       0.43317652      -0.01466767       0.68357700 
C       2.19785957      -0.51443060      -0.47624973 
C       3.28794865       1.37565134      -0.74791977 
C       2.45297512       2.41028017      -0.28704537 
O       2.75898941       2.86602120       1.10059214 
C       2.61502926       1.80370326       2.10559832 
H       2.93248185      -0.01868001       0.15682121 
H       2.55116572      -1.08573740      -1.26691655 
H       4.20268549       1.29095104      -0.35774334 
H       3.21858442       1.14582095      -1.74092375 
H       2.52974661       3.36756019      -0.90738929 
H       1.37187347       2.13697487      -0.31736878 
H       1.62038878       1.35416787       2.03088107 
H       3.37138349       1.02995633       1.95664570 
H       2.74916126       2.26710371       3.07618097 
