17

C       0.71990583       1.11978584      -0.02115209 
H       1.09366176       1.76419399      -0.83210244 
C      -0.74514629       1.18878446       0.25382532 
C      -1.48799535      -0.04971159      -0.25514657 
C      -0.80640664      -1.32432318       0.24905045 
C       0.66029921      -1.38555002      -0.21486045 
C       1.43345212      -0.14421913       0.16004180 
H      -0.93189012       1.26281698       1.34363754 
H      -1.18216601       2.09765656      -0.18570217 
H      -1.49875981      -0.04877779      -1.34782915 
H      -2.53238221      -0.01914883       0.07261726 
H      -1.34398540      -2.20612863      -0.11490463 
H      -0.84828939      -1.35366934       1.34549388 
H       0.67741702      -1.54920361      -1.30487540 
H       1.15978943      -2.26005026       0.21450401 
H       2.43433319      -0.24167028      -0.23209012 
H       1.86015296       1.02387062       0.69295499 
