21

O       1.05758480       0.38813690      -0.64220951 
C       2.29167399       0.25192352      -0.18419982 
C       3.05075352      -0.91935407      -0.42700560 
C       4.43616601      -1.04208450      -0.06250048 
C       5.10294155      -2.37853535       0.27280042 
C       4.70986513      -3.54395399      -0.63951585 
C       5.13173276      -3.37071387      -2.10528246 
C       6.64294141      -3.36861631      -2.31118614 
H       2.72728773       1.10669811       0.36514118 
H       2.50913923      -1.84457425      -0.64736115 
H       4.02990387      -0.88339452      -1.34930687 
H       4.93785914      -0.14989098       0.24933993 
H       6.19891332      -2.23950914       0.24899878 
H       4.85906713      -2.65516791       1.30961692 
H       5.16131766      -4.46352216      -0.24018278 
H       3.62380985      -3.69091979      -0.59685879 
H       4.68951134      -4.18313640      -2.69518144 
H       4.71075887      -2.44163295      -2.50000711 
H       7.08575384      -4.29646363      -1.95016573 
H       6.88506819      -3.26668384      -3.36935970 
H       7.11612165      -2.54004977      -1.77501447 
