13

C       0.04365493       2.30343111       0.29546041 
H       0.20116217       2.54459566       1.32906304 
H      -0.22371497       3.18815975      -0.28469577 
C      -0.71149763       1.16255648       0.04957324 
O      -0.04090823      -0.04058229       0.39768832 
C       1.14633590      -0.21082850       0.15184690 
O       1.66537343      -1.46347769       0.36578962 
C       2.01559197       0.76289439      -0.33511758 
H      -1.69079620       1.12687201       0.62035020 
H      -1.00835991       1.08458852      -1.03353366 
H       1.24328761       1.84055405      -0.10312478 
H       2.94396757       0.87581859       0.18492336 
H       2.21814289       0.75727407      -1.39983402 
