18

O       1.92012872      -0.96875944       0.78250023 
C       2.12063138       0.43755005      -0.32167354 
C       2.96001835      -0.92052825      -0.80655327 
C       4.35688710      -0.94349486      -0.69245447 
C       4.92692727      -2.30862961      -0.27185514 
C       4.63734381      -3.44597487      -1.24630900 
C       5.17865027      -3.20768500      -2.64534729 
H       2.60658710       1.09453008       0.24469696 
H       2.42280900      -1.64405401      -1.34723547 
H       4.84098542      -0.66217464      -1.64271833 
H       4.70658353      -0.19346301       0.02390613 
H       5.98375114      -2.20246615      -0.15271367 
H       4.52068444      -2.56947833       0.70769986 
H       5.07521136      -4.35939557      -0.84493945 
H       3.55828929      -3.62404876      -1.29839635 
H       6.24279838      -2.98037064      -2.61956605 
H       5.03659189      -4.08935852      -3.26765347 
H       4.67268729      -2.37479973      -3.12955133 
