20

C       1.85534306       0.67429390       1.88919913 
H       2.47093642       0.71120382       2.78815369 
H       0.77024360       0.62701562       2.04225429 
C       2.39018618       0.45597347       0.67251295 
C       3.21017494      -1.51538276       1.19763665 
C       2.16228862      -1.27675678      -0.07481145 
O       2.76881115      -0.78287342      -1.31939604 
C       2.72547266      -1.75670431      -2.45981420 
C       1.33013994      -1.87004359      -3.02575493 
H       1.89087008       0.88132110      -0.08514809 
H       3.41634846       0.64970186       0.56808210 
H       4.13126607      -1.32830570       1.04615329 
H       2.82430275      -1.63892123       2.07276976 
H       2.01636314      -2.32856295      -0.32033103 
H       1.12410948      -1.04750751       0.07137704 
H       3.43091216      -1.35135034      -3.20759333 
H       3.10210361      -2.71907185      -2.11343785 
H       0.95734085      -0.89735029      -3.33435509 
H       1.32074181      -2.52758665      -3.89686362 
H       0.63664879      -2.27731770      -2.29347045 
