17

O       1.34697351       1.28481045       0.45765878 
C       1.16547907      -0.13134385       0.05889006 
C      -0.34749439      -0.36108525       0.24187126 
C      -0.99840949       1.02379886      -0.10262110 
C      -0.05142411       2.17608994       0.18368709 
H       0.53498222       2.52106522      -0.69367065 
C      -0.84893398       3.41253824       0.43306958 
H       1.95914524       1.68572780      -0.41676021 
H       1.48423281      -0.26244317      -0.97166013 
H       1.79184970      -0.73494303       0.69851275 
H      -0.71333615      -1.14954598      -0.38822617 
H      -0.55540294      -0.62500725       1.26343166 
H      -1.27895882       1.01504720      -1.14261695 
H      -1.93234347       1.14290752       0.45295035 
H      -1.53757026       3.26253382       1.26219353 
H      -0.19024510       4.25024586       0.69407250 
H      -1.45821333       3.76809830      -0.40322820 
