18

C       0.02380029       1.51954242      -0.18410021 
H      -0.29991217       1.99272894      -1.17161996 
H      -0.43237483       2.05666334       0.67916331 
C      -0.04667573      -0.01453161      -0.13475180 
C       1.51865668      -0.11564156      -0.02510906 
O       2.12764704      -0.77992449      -1.21563996 
O       1.55690819      -2.17953754      -1.23782056 
C       1.81657046       1.37198838      -0.04496017 
C       3.60811290       1.32528276       0.11441204 
H      -0.55447405      -0.39329699       0.71713914 
H      -0.42389362      -0.45268496      -0.99733365 
H       1.87471358      -0.62291703       0.85063551 
H       2.03669192      -2.48382654      -2.05118485 
H       1.90922449       1.84792306      -0.96155483 
H       1.76400220       1.91407266       0.84739031 
H       3.97837114       0.72999596      -0.66836073 
H       3.95683118       2.29400964       0.04847446 
H       3.84235045       0.90225197       1.05367770 
