11

O       0.45641389       0.37142524      -1.15702283 
C       1.52795811       0.00919386      -0.38619105 
C       1.96813691       1.62152856      -0.26036109 
C       3.00741936       2.16208328      -1.08366094 
H       1.26865864      -0.12378883       0.67458609 
H       1.76274788      -1.02690546      -0.64674162 
H       0.84677978       1.48503412      -0.94230359 
H       1.65773197       2.18066474       0.55222031 
H       3.20529636       1.54253539      -1.95348537 
H       2.80186384       3.17664238      -1.46002131 
H       3.95917580       2.24307334      -0.53755337 
