23

C       0.58889730       3.11786460       0.06663422 
H       0.95286942       3.97705451      -0.50750075 
H       0.44666073       3.37447511       1.12275447 
C      -0.57779518       2.42565732      -0.54216814 
C      -0.86818834       1.05576377       0.08098528 
C       0.19680199      -0.01223380      -0.22081819 
C       1.46342740       0.06726016       0.66936106 
C       2.39427528       1.14580487       0.23234849 
O       3.29853403       1.51690244      -0.86151266 
C       3.94374108       0.34398007      -1.48740923 
H      -1.47699529       3.04196131      -0.45297906 
H      -0.41113310       2.29508802      -1.62600164 
H      -0.98003463       1.15920882       1.16177916 
H      -1.83170388       0.69938478      -0.29292906 
H      -0.24996472      -0.99207910      -0.07104284 
H       0.48123945       0.04060724      -1.26610443 
H       1.10150449       0.04654455       1.70825710 
H       2.02458552      -0.87908192       0.62177458 
H       1.58125931       2.19609185       0.08200205 
H       3.11965260       1.22614027       0.99805704 
H       4.77663524       0.01820549      -0.86268780 
H       3.22197894      -0.47043579      -1.58827628 
H       4.31060257       0.65083863      -2.46257850 
