20

C      -0.21725957       0.04895433      -0.48918646 
H      -0.57516939       0.06199026      -1.52271958 
H      -0.88985359       0.59293811       0.18808306 
C       0.28643127      -1.26856734      -0.01387453 
C       1.76981435      -1.34945846      -0.42775437 
C       2.27886317       0.05876922      -0.41615271 
O       3.10413067       0.39823775      -1.59501976 
C       4.57059457       0.57799397      -1.26955908 
C       5.39788829       1.00686147      -0.08431026 
H       0.20831120      -1.33133073       1.08214577 
H      -0.28503044      -2.12487989      -0.41545811 
H       2.34236690      -2.01600928       0.22946861 
H       1.85083117      -1.75629690      -1.44160865 
H       1.03771008       0.55619433      -0.53514521 
H       2.72621281       0.40219288       0.47602464 
H       4.77105601      -0.49766578      -1.38011859 
H       4.82823997       1.19529081      -2.12937970 
H       5.06927049       0.48886188       0.81786951 
H       6.46933085       0.83472876      -0.12282658 
H       5.28585113       2.07893248       0.07031364 
