20

O       0.30250525      -0.70545253       0.11156386 
C       0.10746021       0.36939155       1.09641249 
C       0.94412722       0.15150882       2.34952383 
C       2.46972098      -0.06703557       2.10051206 
C       3.27201354       1.10171993       1.62148924 
H       4.22216468       1.15448794       2.15012383 
C       2.57826394       2.36397542       1.23772271 
C       3.25435053       1.57320345       0.35474539 
H       1.25315774      -0.70157502      -0.15012356 
H       0.34497460       1.33174571       0.61702014 
H      -0.95848987       0.37040037       1.34450895 
H       0.80938205       1.00583315       3.01918536 
H       0.56805037      -0.72816903       2.88068684 
H       2.90264479      -0.43876129       3.03844456 
H       2.56179788      -0.88739992       1.38543266 
H       1.83500975       3.02465871       0.78749214 
H       2.96004338       3.06409387       1.96182645 
H       2.76545941       0.71291357      -0.18016862 
H       3.11549877       2.09625643      -0.63487708 
H       4.34066469       1.80291965       0.18827768 
