20

C      -0.28050080       2.52172331      -0.31031704 
H      -0.25181523       2.67745024      -1.35858042 
H      -0.59615362       3.38236669       0.26880932 
C      -0.63428413       1.21130173       0.16773222 
C       0.15279447       0.07150707      -0.37809051 
C       1.47540854      -0.12129408       0.20405528 
C       2.52682400       0.77076301      -0.26132682 
O       1.67310153       2.52095613      -0.11222534 
C       2.39323908       3.63080056      -0.69411830 
H      -0.59264667       1.18427071       1.28235931 
H      -1.74750546       1.00448807      -0.05687006 
H      -0.44872936      -0.87294024      -0.22977239 
H       0.23824006       0.17897335      -1.50894795 
H       1.40122609      -0.06336551       1.33831844 
H       1.79220243      -1.18682621       0.02330195 
H       3.42547392       0.85762958       0.34946102 
H       2.69303829       0.82939688      -1.29705079 
H       3.37477976       3.72141745      -0.21888291 
H       2.52729663       3.45513964      -1.74532669 
H       1.81208036       4.57360152      -0.54932086 
