19

C       1.18067301       0.01295711      -0.31966018 
H       0.42778255      -0.15681884       0.44315551 
H       0.87702212       0.62625475      -1.16262592 
C       2.60064958       0.03456572       0.07676545 
C       2.97961910      -1.06005581       1.08621500 
C       2.54715150      -2.44868534       0.65572556 
O       2.98615390      -2.74539998      -0.70499257 
C       2.20334882      -2.25616864      -1.72480923 
O       0.94753213      -1.82550243      -1.25579914 
C       2.50822359      -2.20986251      -2.77773342 
H       3.23708235      -0.05054347      -0.81402872 
H       2.85236304       1.01895935       0.51552014 
H       4.06415996      -1.04249689       1.23213986 
H       2.53315095      -0.84146295       2.05350417 
H       2.99099779      -3.21060125       1.29325321 
H       1.44945246      -2.55155619       0.68999352 
H       3.21624228      -0.66706545      -2.85837735 
H       3.43963000      -2.63538446      -3.12477770 
H       1.81569176      -1.93365319      -3.56692380 
