17

C       1.29116516      -0.58403841       0.83599033 
H       1.08483896      -1.59516162       0.46629287 
H       0.54114760      -0.05878491       1.39382371 
C       2.54755850       0.09970236       0.46489179 
C       3.45775638      -0.58370732      -0.20983082 
O       2.53664870      -1.24060316      -2.09528736 
C       1.33509340      -0.47114978      -2.50573164 
C       0.19469480      -1.44291389      -2.70931679 
H       2.29083311       1.09132663      -0.00421586 
H       3.01564541       0.49410542       1.44871918 
H       3.83275550      -0.15706693      -1.91612854 
H       3.64560839      -1.47174266      -0.07661280 
H       1.08558789       0.27360373      -1.72527105 
H       1.56667468       0.08491926      -3.44939136 
H      -0.01941022      -1.97455365      -1.79819079 
H      -0.69574786      -0.92260158      -3.01687518 
H       0.44399661      -2.17579929      -3.47540594 
