15

O      -0.72738449       2.41336549      -0.35023808 
C       0.20222503       1.47827060       0.26716577 
C       0.17757654       0.13156888      -0.11592232 
C       1.62722148      -0.09386737      -0.46135244 
C       2.11108381       1.20277375      -0.27857689 
C       2.66371773       1.95139752      -1.35924310 
H       0.42950403       1.79332212       1.40543647 
H      -0.61295483      -0.27952639      -0.65999890 
H       2.09272379      -0.82564301       0.15304594 
H       1.73383772      -0.45729607      -1.48467073 
H       0.65718493       2.38868642      -0.54336662 
H       2.57581558       1.42155916       0.69813002 
H       2.10997599       1.82633946      -2.28198972 
H       2.73699960       3.00891608      -1.14935612 
H       3.74144121       1.62140971      -1.61039642 
