21

O       1.84489855      -0.61520602       0.93817833 
C       1.93624876       0.58559327      -0.21869991 
C       2.87310124      -0.89028390      -0.63581916 
C       4.24244445      -0.86023989      -0.48686564 
C       4.84052684      -2.15094057       0.14423286 
C       4.57063238      -3.42466758      -0.65036320 
C       5.11933798      -3.42125326      -2.08372111 
C       6.63509176      -3.28915568      -2.15593556 
H       2.46563816       1.27854252       0.19060793 
H       2.34283770      -1.63521963      -1.06712592 
H       4.75722905      -0.71595185      -1.45645169 
H       4.56556889      -0.01494545       0.12341427 
H       5.89328554      -2.00450838       0.25634159 
H       4.42303915      -2.26408984       1.14856674 
H       5.00996685      -4.26664660      -0.10576095 
H       3.49424850      -3.61150769      -0.68508272 
H       4.81673661      -4.35370770      -2.57112129 
H       4.65290806      -2.61202535      -2.65676035 
H       7.12185470      -4.07661857      -1.58218983 
H       6.97795745      -3.36120241      -3.18599420 
H       6.96827154      -2.33161547      -1.75799168 
