11

C       0.38350243       1.02322741       0.80640517 
H       0.56211965       1.25385180       1.89524358 
C       1.09409024       0.09842115       0.11300543 
C      -0.64494264      -1.22102724       0.37651979 
C      -0.76656457       0.43945696       0.31591154 
H       1.04655134       0.07346743      -0.93235120 
H       1.91992060      -0.38915425       0.51596976 
H      -0.39753986      -1.61796592       1.22028097 
H      -0.73759298      -1.73139762      -0.44038603 
H      -1.73559779       0.71719636       0.84784080 
H      -0.96511823       0.68329687      -0.78204668 
