14

C      -0.78990647      -1.00135599       0.16442395 
H      -1.32763098      -1.95487234      -0.03037953 
C      -1.48368295       0.16704426       0.35510022 
C       0.21917033       1.41705470      -0.25673330 
C       1.19624742       0.45794364       0.15932053 
C       0.67428247      -0.98144231       0.06664941 
H      -2.41309977       0.32305108      -0.05197619 
H      -0.99149495       0.99587392       0.85963064 
H       0.30180192       2.37154675       0.07787801 
H      -0.20041380       1.30911318      -1.15839416 
H       1.52331890       0.66692724       1.19848750 
H       2.15527716       0.52805748      -0.44354213 
H       1.15108226      -1.61357811       0.84720198 
H       1.00881553      -1.45677844      -0.88284206 
