14

C       1.36784568      -0.62820812      -0.13411594 
H       0.54302082       0.08927788      -0.05938704 
H       1.08663957      -1.29691622      -0.95418054 
C       2.70085672      -0.07141045      -0.21230272 
C       2.93391504       1.39938917      -0.44010123 
O       2.62453082       2.18564591       0.78696443 
C       1.26959970       2.73321124       0.80896455 
H       1.97057035      -0.06397156       0.93337058 
H       3.51038570      -0.63182804       0.23900859 
H       3.99939288       1.59110064      -0.64028647 
H       2.32461440       1.80448216      -1.26463143 
H       1.10506027       3.37032327      -0.06114513 
H       0.53258377       1.92323847       0.80367162 
H       1.17002069       3.31513034       1.72791624 
