23

C       1.22229831      -0.56554526      -0.19056941 
H       0.39249672      -0.59559948       0.44656974 
H       1.64763086      -1.49311080      -0.52666137 
C       1.69282777       0.65322628      -0.69005895 
C       3.17188100       1.58788330       0.64519738 
C       2.71534843       1.45119387       1.99182537 
C       2.75100121       0.03115252       2.55132115 
O       4.11249331      -0.36127562       3.02416697 
C       5.16190991      -0.42414434       1.91982244 
C       4.88726662      -1.54993441       0.95696872 
H       2.19360555       0.64774044      -1.57175245 
H       1.11627292       1.50364139      -0.50516101 
H       3.24561690       0.71299964      -0.00859199 
H       3.23347738       2.50999722       0.21086687 
H       3.31218653       2.13665105       2.69871970 
H       1.68826806       1.81017713       2.10695840 
H       2.10990398      -0.06059135       3.44703475 
H       2.40174583      -0.69044785       1.79067254 
H       5.17400368       0.55017528       1.41567044 
H       6.10267688      -0.56337177       2.44901829 
H       3.95991446      -1.39057966       0.40859241 
H       5.69115093      -1.62712637       0.23556162 
H       4.81036688      -2.50085093       1.48108585 
