15

O       1.91439420      -1.10370550       0.38211360 
C       2.41479331       0.29298592      -0.38495701 
C       3.13644517       0.06710590       1.24545880 
C       4.44415726      -0.35878752       1.31881948 
C       5.15476081       0.03610589       2.64306183 
C       4.58527950      -0.68669990       3.84415669 
H       2.97637053      -0.00765009      -1.09608350 
H       2.56525718       0.37452624       2.02793424 
H       4.52496420      -1.46288542       1.21880960 
H       5.04728828       0.00073684       0.48382630 
H       6.19722244      -0.18420763       2.54834774 
H       5.07437731       1.11502576       2.78526579 
H       4.71240750      -1.76080077       3.74386966 
H       5.08144996      -0.37260693       4.75412051 
H       3.52558452      -0.48871163       3.95508016 
