11

C       1.15526654       0.39662284      -0.46788136 
H       0.46765201      -0.41383591      -0.72034254 
H       0.55708612       1.18537763      -0.00426888 
C       2.34890205       0.02673431       0.25219924 
O       2.40433135      -1.40685133       0.54032078 
C       2.67419649      -1.73183217       1.94817870 
H       2.18439405      -0.23766556      -1.06965522 
H       2.53669857       0.53989450       1.18986434 
H       3.54621597      -1.17809455       2.30233030 
H       1.80356425      -1.46902060       2.55810483 
H       2.85768542      -2.80439498       2.00527776 
