13

C       1.13254677       0.20736301      -0.38091658 
H       0.59096826       1.06593385      -0.13485898 
H       0.60556392      -0.70277112      -0.50358220 
C       2.53362405       0.21838049      -0.40156351 
C       2.88991989       0.71177370       1.71176819 
C       2.58280600      -0.41690672       2.54220047 
H       3.01715195      -0.66697598      -0.46214470 
H       2.99959127       1.01804214      -0.88624519 
H       3.58309450       0.61195061       0.87561571 
H       2.39989749       1.59909273       1.82080975 
H       2.89992232      -1.37018203       2.08992431 
H       3.09419226      -0.36886595       3.56191656 
H       1.51814737      -0.48359098       2.76959694 
