10

C       0.91773176      -0.04006198       0.36482534 
C       0.28631015       1.31512159       1.10901350 
H      -0.74889335       1.16283013       1.36073147 
C       1.17205874      -0.36625487       2.22177080 
H       0.70233836       0.28359857      -0.66673398 
H       0.37096087      -0.96215938       0.35317274 
H       1.97989031      -0.14856592       0.27570948 
H       1.58687790      -1.26373659       2.13879215 
H       1.79288697       0.31806789       2.57349609 
H       0.25299215      -0.39990873       2.70278351 
