23

C       0.85991112       2.82483949      -0.57854344 
H       0.76059606       2.74139578      -1.67607965 
H       1.43132287       3.70448745      -0.23112367 
C      -0.38791287       2.53746045       0.19118484 
C      -0.96200078       1.16473395      -0.20744025 
C       0.12020738       0.09222132      -0.03289569 
O       1.32192304       0.47061548      -0.88422531 
C       2.12108483       1.57274340      -0.28871886 
C       3.49845284       0.49089354       0.11910554 
C       4.15481047      -0.15272877      -1.03896214 
H      -0.18822381       2.54840652       1.26364886 
H      -1.16499365       3.29928927       0.04013109 
H      -1.83108192       0.91005319       0.38069576 
H      -1.27432289       1.18992261      -1.24475775 
H       0.46764059       0.01741759       0.99139131 
H      -0.19203106      -0.87825286      -0.39250505 
H       2.73976080       2.07585797      -0.97340484 
H       2.03511381       1.75759994       0.75080292 
H       4.09210958       1.20649607       0.60033547 
H       3.03413588      -0.17783544       0.78091834 
H       4.39337859       0.57052003      -1.82554265 
H       5.11358009      -0.63259670      -0.78636212 
H       3.52238198      -0.93023380      -1.47771804 
