23

C       0.35861898       0.64183605      -0.00495113 
H      -0.13852910       0.95985163      -0.92721727 
H      -0.19502488       0.75965673       0.93210728 
C       1.52711562      -0.19375400      -0.05976366 
C       2.07956484       1.15467112       0.10604405 
C       3.87797213       1.12816019       0.16759020 
C       4.43184046       0.64923894      -1.10128173 
C       4.64580056       1.44552175      -2.16056987 
C       5.46305941       1.01928950      -3.34791763 
C       5.27773105       1.92158289      -4.56907006 
H       1.68042954      -0.86262968       0.76677670 
H       1.74047585      -0.66721730      -1.01055864 
H       1.97156365       1.80257312      -0.71932548 
H       1.91688573       1.61308009       1.05245196 
H       4.12918885       2.11803550       0.37728812 
H       4.10187072       0.50207886       0.98008806 
H       4.52261570      -0.43397279      -1.22139678 
H       4.24659319       2.46266488      -2.16704025 
H       6.53568141       0.98728343      -3.09174244 
H       5.21894150      -0.01671278      -3.60822801 
H       5.57488510       2.94632576      -4.34473466 
H       5.88005832       1.57063227      -5.40619533 
H       4.23502322       1.93858651      -4.88573783 
