25

C      -0.06501478       1.49762876      -0.38553892 
H      -1.11581813       1.46106942      -0.67369292 
H      -0.16489230       2.45626242       0.13044768 
C       0.25610813       0.04921435      -0.16759026 
C      -0.58264430      -0.92146300      -1.00685369 
C       1.78492619      -0.20264848      -0.33944620 
C       2.47844957       1.13082307      -0.38566018 
C       3.34640621       1.51917098      -1.55325830 
C       2.76808286       1.22667519      -2.94940898 
C       1.50058947       2.01482897      -3.25738784 
H      -0.01652626      -0.14768907       0.89397331 
H      -0.30648531      -0.86022265      -2.05658417 
H      -0.45602190      -1.95393396      -0.68464609 
H      -1.64237306      -0.66788617      -0.92124508 
H       2.16451041      -0.81072329       0.48486279 
H       1.96510076      -0.76821732      -1.26064513 
H       1.27244055       1.73218900      -0.41457969 
H       2.79857931       1.52600718       0.53795260 
H       3.59321918       2.58851362      -1.48103855 
H       4.31610043       1.00250392      -1.47959262 
H       3.53345611       1.46319194      -3.69689715 
H       2.56326905       0.15329633      -3.04910807 
H       1.67564205       3.08426976      -3.16864085 
H       1.15584752       1.80850820      -4.27274894 
H       0.70337883       1.74915280      -2.56735671 
