19

C       1.68193434       1.99917412       0.20119627 
H       1.06202840       2.76670027      -1.42257080 
H       1.92262982       2.24997157       1.26520957 
C       1.47424712       0.62609996      -0.15199241 
C       0.07459364       0.09897832       0.22051984 
C      -1.02264965       1.07828389      -0.29177686 
O      -0.67260696       2.41008998       0.18625990 
C       0.17166658       3.08679536      -0.53104904 
O      -0.18022273       3.15825032      -1.93589500 
C       0.47751030       4.49359925       0.05094454 
H       1.61401516       0.46656072      -1.23994405 
H       2.24178398      -0.03997633       0.34224966 
H      -0.08082572      -0.88595373      -0.19142190 
H      -0.00623329       0.01733529       1.31479892 
H      -1.06811315       1.10623260      -1.37817924 
H      -1.95851084       0.84668403       0.10363930 
H      -0.40061207       5.09198218      -0.00607115 
H       0.79108003       4.43093640       1.10063989 
H       1.26693642       4.98491873      -0.52418834 
