17

O       2.11258310       1.15288079      -0.06952263 
C       1.43743234      -0.05938523      -0.03017866 
C       0.00156900      -0.06436652      -0.22532364 
C      -0.72989571       1.28924140      -0.28156885 
C       0.02887960       2.43379697      -0.62156731 
H       0.19353625       2.60778014      -1.66700211 
C      -0.18231807       3.69534875       0.12985258 
H       1.25306014       1.95827447      -0.31006518 
H       1.95848015      -0.78393880      -0.69961099 
H       1.74212813      -0.56416908       0.94536358 
H      -0.27105550      -0.79116592      -1.03186207 
H      -0.52168760      -0.65007844       0.54524338 
H      -1.56893964       1.11195116      -1.06746622 
H      -1.41558546       1.45810917       0.58506411 
H      -1.11977181       4.18182929      -0.17365152 
H      -0.25129377       3.51436467       1.21137785 
H       0.62353410       4.42308683      -0.05066315 
