17

O       4.15722236       0.53976093       1.48446752 
C       3.03900009       1.17125158       2.22658807 
C       2.39633930       2.17771826       1.48676381 
C       1.58720019       1.24756046      -0.27147339 
C       1.13734669       0.00439042       0.12453303 
H       0.30676835      -0.05887348       0.83040561 
C       1.87304880      -1.23661076      -0.17118120 
H       4.01185219       0.72661074       0.53071105 
H       2.35044792       0.35620744       2.52307420 
H       3.47791218       1.49697986       3.15740649 
H       1.53105766       2.54830379       1.87028496 
H       2.97986197       2.85302493       0.98894142 
H       0.87546601       1.97181761      -0.50638184 
H       2.45076351       1.28916360      -0.85644011 
H       2.26284449      -1.24925280      -1.19278980 
H       2.76231929      -1.34467603       0.48506341 
H       1.26141980      -2.11940115      -0.02142084 
