22

C      -0.17619759       1.21675468      -0.07720305 
H      -1.06548394       1.38189222      -0.71001980 
H      -0.39170214       1.79946351       0.81837163 
C       0.08354332      -0.29371764       0.05968725 
C      -0.45645781      -1.15840933      -1.00873285 
C       1.67817764      -0.14158646       0.11744092 
C       1.61773344       1.39910914      -0.01976526 
C       1.89710024       2.35259274       1.11229431 
C       1.80976333       1.73411924       2.50535999 
H      -0.23064023      -0.63691878       1.04116845 
H      -0.09103954      -0.85790605      -1.99408469 
H      -0.17174412      -2.21044711      -0.85991754 
H      -1.55455788      -1.11096379      -1.04106006 
H       2.11387734      -0.45535191       1.00911297 
H       2.14769158      -0.63308824      -0.70855943 
H       2.88136176       1.38519342      -0.35796133 
H       1.54594772       1.82958401      -0.97537977 
H       2.88507642       2.82307558       1.01449251 
H       1.19463340       3.19281003       1.04336678 
H       2.58537574       0.99423933       2.66054301 
H       1.92341458       2.50260389       3.26964518 
H       0.84841211       1.24955929       2.65304514 
