14

O       0.20432926       2.25351770      -0.79339026 
C      -0.52815172       1.34130176      -0.24400056 
C       0.11612574       0.05308708       0.22369324 
C       1.58719646      -0.07561681      -0.06418199 
C       2.32686875       1.14248295      -0.13361432 
H      -1.26152787       1.79555587       0.51981307 
H      -1.41462813       1.08267381      -0.93815400 
H      -0.15603303      -0.13614961       1.26824251 
H      -0.40555779      -0.85088559      -0.15392644 
H       2.01924199      -0.74588743       0.72959333 
H       1.76834040      -0.71140692      -0.96469567 
H       1.33805521       1.92017387      -0.60490838 
H       2.57877778       1.59689642       0.77149343 
H       3.14208357       1.18526794      -0.84336044 
