25

C       1.57164729       3.69887908      -0.79127619 
C       1.21612459       2.25038712      -1.02180415 
H       1.76979941       1.80702437      -1.88832802 
C      -0.27466255       1.92965629      -1.02366925 
C      -0.77023463       1.20731329       0.25767182 
C      -0.05998494      -0.14955754       0.44817373 
C       1.38884016      -0.11626130      -0.09972754 
C       2.06456226       1.20646813       0.17550490 
C       3.17043544       0.76245487       1.52299201 
H       1.24604476       4.35354777      -1.61059643 
H       2.64075321       3.82895958      -0.69604878 
H       1.10312432       4.07935785       0.09921044 
H      -0.85798022       2.83814988      -1.14102164 
H      -0.50096368       1.27546836      -1.86524348 
H      -0.57395678       1.85109552       1.10266008 
H      -1.83175045       1.06544417       0.21047339 
H      -0.05137577      -0.40283238       1.49330610 
H      -0.61291024      -0.93819641      -0.05689482 
H       1.94865978      -0.96752485       0.28547574 
H       1.36105234      -0.31032979      -1.16719428 
H       2.95840224       1.40604006      -0.34572114 
H       1.60074889       1.83555577       0.89410719 
H       3.83724818       0.02662755       1.16591640 
H       3.61206973       1.67879402       1.73238994 
H       2.48369334       0.41758552       2.23668024 
