12

O       1.21990503       0.74817784       0.08143782 
C       2.50508948       0.52476932       0.00906154 
C       3.39908902       0.99896591       0.91532201 
C       4.89512625       0.27033197       1.04725513 
C       4.60612234       2.27833885       0.19570244 
H       2.84791925      -0.05442568      -0.86266039 
H       3.03408718       1.43202873       1.82245311 
H       5.46043394       0.55710984       1.78477148 
H       5.24508412      -0.15126814       0.27024203 
H       4.01708400       3.05540413      -0.05728198 
H       5.24666507       2.54740027       0.90989415 
H       5.03504750       1.89525210      -0.60616390 
