23

O       3.32726947       1.65087786       0.21143488 
C       1.94024496       1.60146985      -0.13114670 
C       1.48353289       0.21053698       0.18615902 
C      -0.07804062       0.14254266       0.25483219 
C      -0.63566688       1.50448599      -0.06730168 
H      -0.87890888       1.73084155      -1.11332713 
C      -1.46780558       2.23829274       0.94019524 
C      -2.99600608       1.95027954       0.82007789 
C      -3.35348220       0.51151538       1.16908784 
H       3.48528228       1.03249980       0.96777966 
H       0.64102078       1.95301942      -0.17526766 
H       2.01567617       2.09764224      -1.06457283 
H       1.87607615      -0.47591106      -0.56955663 
H       1.88813819      -0.16976967       1.13017416 
H      -0.43633974      -0.59732666      -0.46433213 
H      -0.39900047      -0.18639608       1.25530037 
H      -1.14362392       1.98446751       1.95514189 
H      -1.33851419       3.32529463       0.82209672 
H      -3.53319208       2.63813886       1.48811737 
H      -3.32273969       2.17790571      -0.19854687 
H      -3.05175334       0.27100147       2.18509315 
H      -4.43214859       0.34973425       1.08889423 
H      -2.85828276      -0.18508141       0.49878914 
