16

O       0.18631484       2.16575656       1.12338123 
O      -0.39242262       1.03204371       0.86891158 
C       0.28274040      -0.12137360       1.44768366 
C       1.75250840      -0.16897969       1.01080261 
C       2.41917583       1.08459772       1.13827517 
C       1.03200211       0.83177161       3.85012618 
C       0.05066954      -0.12367685       3.04345826 
H      -0.26593726      -0.97921870       1.03760241 
H       2.25216082      -1.00311572       1.61636223 
H       1.77237055      -0.53604061      -0.04227108 
H       2.01043314       0.37424293       3.95640707 
H       1.36727743       1.94076079       1.08224757 
H       1.13423438       1.80367898       3.33548396 
H       0.62108215       1.00687350       4.84659304 
H      -0.98861205       0.17550519       3.22660701 
H       0.17114150      -1.15152295       3.39684595 
