12

O       0.19404985       2.12029539       0.23982767 
C      -0.73770908       1.14721589       0.26121323 
C      -0.21623899      -0.13289992      -0.08019566 
C       1.28643702      -0.03937122      -0.12544078 
C       1.70379563       1.41466686       0.01558124 
H      -1.75861296       1.48381238       0.14505166 
H      -0.71889648      -1.04516206       0.07768259 
H       1.74485709      -0.63086792       0.66377289 
H       1.68506895      -0.44708224      -1.04174592 
H       2.96703278       1.10878440      -0.13111038 
H       1.83095210       2.00679354      -0.86204209 
H       1.99728156       1.78501426       0.97222157 
