13

C       0.42193877      -2.39674764       2.07782347 
H       0.24228873      -1.48184353       2.61997837 
H      -0.10958910      -3.29990225       2.36793470 
C       1.16140122      -2.36909339       0.80742704 
O       1.93449122      -1.13918638       0.65506245 
C       1.26079162      -0.09299287       0.26146549 
O      -0.01439061      -0.13378241      -0.06245782 
C       1.71171447       1.25658641      -0.00665995 
H       1.89263140      -3.20962158       0.72372171 
H       0.49073892      -2.45216901      -0.06656071 
H       0.40638296       1.12709552      -0.30138651 
H       1.97827631       1.85827923       0.82968294 
H       2.39215899       1.39035996      -0.80417640 
