11

C      -0.02792923       1.12270481      -0.56542859 
H      -0.13447712       0.99914723      -1.63888812 
H      -0.83706098       1.71187670      -0.14653468 
C       0.36123938      -0.08258695       0.19538771 
C       1.75487940       0.17027159       0.71849876 
C       2.23908997       1.36229356       0.36838296 
H      -0.33459407      -0.30227867       1.01434609 
H       0.33062353      -1.00394793      -0.43015394 
H       2.27941806      -0.56255072       1.33115336 
H       3.19921830       1.80373492       0.61166073 
H       1.14308802       1.74767419      -0.31919466 
