17

C       0.61301437       1.19139140      -0.10532771 
H       0.99043004       1.77117381      -0.93077792 
C      -0.66681266       1.46123626       0.38015421 
C      -1.60187380      -0.38167978      -0.36979960 
C      -0.77872907      -1.43101950       0.16453087 
C       0.69619042      -1.32269753      -0.22648364 
C       1.35269068      -0.02440290       0.29584471 
H      -0.82004256       1.36260021       1.40024099 
H      -1.20997845       2.19401966      -0.06983380 
H      -1.58529503      -0.17489165      -1.38230581 
H      -1.99211361       0.40087400       0.29033520 
H      -1.14116937      -2.45601950      -0.19813198 
H      -0.85790298      -1.47012195       1.27285901 
H       0.78153960      -1.35064458      -1.31743907 
H       1.24449668      -2.18846704       0.16248034 
H       2.36745048       0.01427916      -0.04495111 
H       1.38876136      -0.09357408       1.40207082 
