11

C       0.45998646       0.83901459       0.50355050 
H       0.68642734       1.66413999      -0.18912114 
C       1.05745643      -0.44916498       0.12616569 
C      -0.26505673      -1.00186936      -0.19174267 
C      -0.92497318       0.30501579       0.28434801 
H       1.78373028      -0.47781527      -0.60209418 
H       0.67000442      -0.18316362       1.38047817 
H      -0.58206209      -1.88920571       0.37103145 
H      -0.42476068      -1.21128265      -1.25532455 
H      -1.56786572       0.19082613       1.17771160 
H      -1.51259600       0.83216215      -0.49294736 
