18

O      -0.70949511      -1.13389430       0.15255478 
C      -0.00937416      -0.02649312      -0.01664729 
C       1.38476703      -0.01238726      -0.16648608 
C       2.12768434       1.12321413      -0.31358507 
C       2.65991603       1.83438870       1.64249699 
C       3.34119316       0.80594555       2.35613684 
C       4.67666961       0.40284591       1.77802571 
H      -0.57921710       0.91555041      -0.05147902 
H       1.89508241      -0.97429412      -0.08632197 
H       3.12537817       1.02644570      -0.63232672 
H       1.64435738       2.01198755      -0.57974741 
H       3.22480274       2.64134139       1.31876170 
H       1.71728931       2.08134108       1.97733117 
H       3.49688415       1.11507568       3.36995341 
H       2.69771322      -0.09780639       2.45033847 
H       5.33116613       1.26478262       1.67008569 
H       5.17197064      -0.31495700       2.41322792 
H       4.55782813      -0.04268648       0.79962487 
