22

C       0.97801258       4.21617117       0.83595911 
C       0.89989735       3.31713794      -0.36213140 
H       1.33667787       3.77105975      -1.25819984 
C      -0.43690695       2.66769124      -0.62198986 
C      -0.64760123       1.40798831       0.28012818 
C       0.00133777       0.02413366       0.42561744 
C       1.37690550       0.02452254      -0.27897981 
C       2.29154962       1.09263175       0.17647945 
H       0.39573042       5.12946194       0.68816331 
H       2.01031416       4.51444480       1.04953411 
H       0.58048441       3.71315849       1.72379382 
H      -1.23969472       3.41033430      -0.55257457 
H      -0.48730100       2.29777307      -1.64390313 
H      -0.18486009       1.83858029       1.16589268 
H      -1.58936389       1.10770289      -0.17788068 
H       0.16987835      -0.24851105       1.46440088 
H      -0.61347645      -0.75609402      -0.01666983 
H       1.82763104      -0.96435844      -0.12061854 
H       1.21618029       0.10917644      -1.36328045 
H       1.67989760       2.25446206      -0.09934622 
H       2.43781871       1.11251762       1.21675700 
H       3.20594026       1.11896122      -0.34034678 
