20

C      -0.23271559       1.78569753      -1.08765822 
H       0.10430590       1.45940881      -2.06917380 
H      -0.28033531       2.86990208      -1.02287849 
C      -1.49141973       1.10626405      -0.67185275 
C      -1.21802090      -0.28404671      -0.06274574 
O       0.02468046      -0.84017003      -0.69203934 
C       1.25228008      -0.10752805      -0.22098351 
C       1.21862851       1.38458960      -0.10139478 
C       0.79578603       1.99905993       1.19716978 
H      -2.04435591       1.69910535       0.05543322 
H      -2.16995768       0.95678424      -1.52939272 
H      -1.04275115      -0.21494848       1.01013292 
H      -2.00528512      -1.01458943      -0.24950063 
H       1.41547375      -0.59185095       0.76409657 
H       2.00209044      -0.45802054      -0.94392489 
H       2.45394517       1.43975538       0.32498891 
H       1.72315599       1.95096024      -0.84961090 
H       1.38610855       1.64156671       2.04682169 
H       0.92957046       3.08511016       1.15558993 
H      -0.25009631       1.81216680       1.44799039 
