14

C      -0.56311968       1.49374332      -0.44814166 
H      -0.55254307       1.70954434      -1.51193114 
H      -1.46439995       1.86152665       0.03180381 
C      -0.11321916       0.14335972      -0.06417226 
C       1.40242450       0.20153548       0.22771410 
C       1.73801203       1.64482413       0.48517688 
C       2.89344971       2.31029988       0.48557788 
H      -0.64195961      -0.19620896       0.83550805 
H      -0.32582138      -0.61383644      -0.84792903 
H       1.67984558      -0.45207423       1.06021026 
H       1.98270028      -0.15586255      -0.63200298 
H       0.54065192       2.09089204       0.04945502 
H       3.03099964       3.22142203       1.05716704 
H       3.70800931       2.04996837      -0.18292934 
