19

C       1.18474396      -0.26242181      -0.23197181 
H       0.92534138       0.06540587      -1.24581794 
H       0.30672135       0.01676654       0.35778896 
C       2.44749519       0.18205822       0.34129752 
C       3.07940160       1.46703555      -0.15699847 
C       3.11308261      -0.55119317       1.50386634 
C       2.67890139      -2.02032620       1.65748325 
C       3.20366938      -2.90780113       0.53662131 
H       2.37214136      -0.64135056      -0.73319636 
H       2.70630620       2.33885532       0.38056179 
H       4.16225950       1.44683811      -0.01957571 
H       2.86356380       1.63912086      -1.21416622 
H       4.20577742      -0.49689312       1.39509463 
H       2.89950562      -0.02637609       2.44831574 
H       3.04010171      -2.39941577       2.62100946 
H       1.58829176      -2.07058375       1.68662311 
H       4.29183032      -2.92980387       0.53477513 
H       2.84172344      -3.92939455       0.64304760 
H       2.87783554      -2.52512590      -0.42934376 
