14

C       0.14699766       0.23057745      -0.74119339 
H      -0.62080733      -0.40885694      -0.29796609 
C       1.59937422      -0.12756672      -0.71280810 
C       1.82997699       1.32165778      -1.12691756 
C       0.91110598       1.38424566      -2.33349736 
C       0.00335838       0.82578056      -2.10063936 
H       1.98950875      -0.38227126       0.29036646 
H       1.93741510      -0.90056189      -1.42824829 
H       2.80117957       1.77418367      -1.11488870 
H       0.73674901       1.39186431      -0.34848634 
H       1.58527916       1.04291970      -3.15272989 
H       0.79359734       2.33878418      -2.86391987 
H      -0.32045797       0.00741084      -2.74764573 
H      -0.96620512       1.33413538      -2.29496382 
