22

C       0.73196010       3.09520726      -1.51600044 
H       0.29040386       2.57790514      -2.36569441 
H       1.40169113       3.90931770      -1.76944371 
C      -0.29273338       3.50736056      -0.55437832 
C      -1.30486968       2.43236189      -0.16896218 
C      -0.97215518       1.01617340      -0.61406308 
C       0.23126047       0.37702745       0.05583068 
C       1.52461841       1.22470406       0.07056111 
C       1.95011090       1.79549482      -1.25644282 
H       0.19528837       3.92633103       0.34758899 
H      -0.88341054       4.40739935      -0.87455712 
H      -1.43730267       2.44593766       0.91460671 
H      -2.29101487       2.69245782      -0.57810809 
H      -1.84467868       0.37669306      -0.42146160 
H      -0.83601847       1.00199733      -1.70619426 
H      -0.01875126       0.13293351       1.10047734 
H       0.43369527      -0.57350062      -0.43499205 
H       1.44662122       2.02207534       0.82202181 
H       2.31975003       0.56999142       0.46718495 
H       2.97579226       0.99133645      -1.37212347 
H       1.66195038       1.23882870      -2.15613531 
H       2.74520441       2.51455667      -1.22274228 
