20

O       2.45924344       0.43220894       0.51222944 
C       1.24847332      -0.14028143       0.62304709 
C       0.11795400       0.44971631      -0.06263622 
C       0.28035324       1.89600922      -0.53915444 
C       1.56310765       2.31360144      -0.87632848 
H       1.90642352       2.02727588      -1.83807646 
C       2.06710500       3.67121967      -0.48775559 
C       1.92531096       4.00383256       0.95254323 
H       2.26053017       1.42907175      -0.13018441 
H       1.32936367      -1.25160854       0.47364691 
H       1.03168453      -0.27017138       1.77956308 
H      -0.29262758      -0.21958681      -0.86525703 
H      -0.79648759       0.39963778       0.55206549 
H      -0.43373221       1.98223655      -1.48643547 
H      -0.25117028       2.58889353       0.11825540 
H       3.13039880       3.76258131      -0.79178654 
H       1.52880880       4.44662825      -1.10307604 
H       2.45989262       3.28284430       1.58683337 
H       2.34840977       5.03441829       1.17577169 
H       0.87143801       4.00630698       1.26963533 
