23

O       0.22252046       2.32152144      -0.00200689 
C      -0.82609985       1.38144396       0.06927705 
C      -0.18175829      -0.04926527       0.31404902 
C       1.22064308       0.10924960      -0.27268724 
C       1.70347980       1.52777262      -0.05872305 
C       3.49609101       1.40429161      -0.00811195 
C       4.11374691       0.91030634      -1.26811282 
C       3.91629211       1.82884432      -2.46679872 
H      -1.51652051       1.66714610       0.87253774 
H      -1.37633392       1.39888360      -0.87278183 
H      -0.14168054      -0.24760299       1.36817646 
H      -0.74847996      -0.82111945      -0.15245645 
H       1.88292444      -0.62413522       0.18462886 
H       1.20429431      -0.10943277      -1.33677318 
H       1.87059982       2.11255628      -0.91370333 
H       1.79445625       1.83999500       0.96506494 
H       3.75041667       2.39779994       0.24025369 
H       3.57966616       0.73016462       0.80214795 
H       5.21581853       0.75975501      -1.13254611 
H       3.73751955      -0.09225354      -1.51233780 
H       4.26934222       2.83504274      -2.25193781 
H       4.45816608       1.45652377      -3.33364423 
H       2.86826151       1.89611767      -2.73609609 
