23

O      -0.62701354      -0.02160357       0.88587404 
C      -0.25822514       0.12626666       2.30276293 
C       0.77501316      -0.92354071       2.71855945 
C       2.12442583      -0.76189935       1.97306764 
C       2.76270440       0.57156287       2.17529964 
H       3.41751394       0.70068271       3.08581659 
C       2.46568914       1.68808997       1.39294481 
C       3.83387167       1.76037837      -0.32683382 
C       3.90253348       0.55621130      -1.04434378 
H       0.20118305       0.07551557       0.35343399 
H       0.13786193       1.13583737       2.45638246 
H      -1.18953462       0.01572985       2.88031572 
H       0.94896240      -0.84728346       3.79498521 
H       0.37177022      -1.94168554       2.52858050 
H       2.80028555      -1.56160921       2.31358454 
H       1.94428195      -0.92859842       0.89165815 
H       2.27383875       1.58163638       0.32502539 
H       2.62348121       2.63914526       1.74832798 
H       3.50771735       2.59354507      -0.80843776 
H       4.56012260       1.92604632       0.38983587 
H       3.06904146       0.41629460      -1.71662187 
H       4.83157787       0.48205532      -1.70094607 
H       3.96029272      -0.32578178      -0.38970364 
