23

C       4.00429186      -0.36743594      -1.96629369 
H       3.41878298       0.24932967      -2.64018810 
H       4.57896018      -1.19788142      -2.37821776 
C       3.93656671      -0.16876041      -0.49897558 
C       3.08842253       1.00412741      -0.08563351 
C       1.48236872       0.85193799      -0.49969975 
O       1.93669767      -0.07185361       0.97673447 
C       1.11816360       0.28080462       2.18599661 
C       1.70092192       1.43846950       2.99545164 
C       1.37958551       2.81522187       2.42842388 
H       3.60407310      -1.09910923      -0.01415137 
H       4.97680287      -0.02018546      -0.08902374 
H       3.29014773       1.37895674       0.88725468 
H       3.45868247       1.82405802      -0.68743805 
H       0.82212760       1.54006295      -0.18003605 
H       1.24036457       0.12919012      -1.14161096 
H       0.09259317       0.49617146       1.86366954 
H       1.10616216      -0.62932806       2.79329366 
H       1.29340909       1.37314748       4.02048546 
H       2.77800242       1.31310485       3.08878922 
H       0.30003839       2.96286343       2.35777170 
H       1.78887109       3.60329890       3.06951881 
H       1.79987466       2.94321208       1.42967549 
