16

C       0.56036470       2.16647214       0.01919548 
H       0.73466956       2.42817279      -1.03654685 
H       0.64527463       3.08562016       0.62520112 
C      -0.66914903       1.44724449       0.23101764 
C      -0.48513399      -0.06713843       0.29501561 
O       0.58343866      -0.49738483      -0.60324916 
C       1.68800995       0.07014382      -0.52171579 
O       2.63334478      -0.21143458      -1.37563767 
C       1.96116375       1.12586879       0.46096591 
H      -1.16354712       1.75914143       1.17447288 
H      -1.41154188       1.67834453      -0.57855924 
H      -0.22966696      -0.39078783       1.30197038 
H      -1.37924404      -0.60720715      -0.01554835 
H       3.02588525       0.54129917       0.94602869 
H       2.62519342       1.89566531       0.19925304 
H       1.58401135       1.04986388       1.44618662 
