14

C      -0.63310753      -1.00760008       0.02657238 
H      -1.36139765      -1.77323068      -0.32538030 
C      -1.07656281       0.37210276       0.30579946 
C       0.06807784       1.34846335       0.00949341 
C       1.36519905       0.76971136       0.11430682 
C       0.68039118      -1.31446526       0.25947898 
H      -1.99548018       0.64125887      -0.25140816 
H      -1.34711863       0.47443073       1.36678142 
H      -0.03978999       2.24760376       0.68246306 
H      -0.09878409       1.73182243      -1.02780252 
H       1.98710860       1.07487968       0.86206776 
H       1.82179813       0.45268691      -0.71823051 
H       1.22792191      -0.69359765       0.96785887 
H       1.20687345      -1.98243749      -0.31277211 
