25

C      -0.51479002       1.26734203       0.00111928 
H      -0.74319238       2.05984155      -0.71353287 
H      -1.57110670       1.02151847       0.15666304 
C       0.14376615      -0.04762211       0.19247003 
C       1.67915832       0.11051382       0.09746357 
C       1.99223370       1.55095324       0.40176581 
C       2.97649966       2.30631362      -0.44516956 
C       2.53065996       2.59135239      -1.89157833 
C       1.49593077       3.71875321      -2.03000587 
C       2.00395457       5.07823683      -1.56248328 
H      -0.11946502      -0.51441712       1.14526858 
H      -0.24907744      -0.75549841      -0.56066645 
H       2.18924997      -0.57129315       0.78531213 
H       2.02248407      -0.14069626      -0.91601277 
H       0.70816193       1.84292294       0.12954624 
H       1.97839520       1.81341115       1.42240645 
H       3.23982935       3.25424110       0.05002196 
H       3.91659789       1.73164988      -0.51323778 
H       3.41500091       2.85150013      -2.48470626 
H       2.11992030       1.67554840      -2.32651057 
H       1.20438317       3.78997557      -3.08644912 
H       0.58502069       3.46118493      -1.47957315 
H       2.94033083       5.33832332      -2.05777199 
H       1.27668879       5.85797871      -1.78431416 
H       2.18174824       5.08478600      -0.48737320 
