19

C       1.38617657       0.81071776      -1.77871104 
H       2.03898193       2.59387249      -1.84532397 
H       1.31267366       0.13779124      -2.66501151 
C       1.04176811       0.22976632      -0.44015753 
C      -0.40572447      -0.12353156      -0.32058060 
C      -1.31729609       0.87748729      -0.92392194 
C      -1.08346461       2.31585082      -0.47124455 
O       0.16443430       2.87093366      -0.82404075 
C       0.74386932       2.70239246      -1.87489661 
O       1.55523714       3.82932103      -2.29223015 
H       1.66010913      -0.64674361      -0.24044972 
H       1.31488221       0.99021098       0.38380742 
H      -0.58826798      -1.09892968      -0.79829310 
H      -0.65891808      -0.26703302       0.75439665 
H      -1.24367083       0.83448800      -2.06143842 
H      -2.37163253       0.62464231      -0.69040117 
H      -1.87390813       2.96783252      -0.88603102 
H      -1.15715168       2.38987171       0.64533388 
H       0.10211464       2.34989606      -2.81344941 
