13

C      -0.57874868       1.33928280      -0.09631811 
H      -1.14004957       1.74824456      -0.96466647 
H      -0.79826943       1.76262344       0.86339570 
C       0.01928563      -0.00353493      -0.17409847 
C       1.56009832       0.08093157      -0.02923023 
O       2.00665972       1.20872892      -0.79788930 
C       1.35629733       2.30826047      -0.53364076 
O       1.34972711       3.29589124      -1.44628356 
H      -0.37149449      -0.66275385       0.60853194 
H      -0.22007087      -0.47529368      -1.14958294 
H       1.84495976       0.21941805       1.00991257 
H       2.06093026      -0.80378593      -0.41299219 
H       1.44683723       2.70668872       0.56425488 
