7

C       1.48812624      -0.14686625       0.04307921 
H       1.37676207      -0.04633706       1.11717711 
H       0.66752637      -0.03018978      -0.63494120 
O       2.79964797       0.73995339      -0.48829953 
C       2.75019481      -1.45946388      -0.49939297 
O       2.32699160      -2.18687057      -1.46138510 
H       3.29611896      -1.79015513       0.32300814 
