14

O       1.00702507       0.16949402      -0.16761515 
C       2.27694204       0.05692126       0.36527325 
C       3.17741112      -0.70182669      -0.57505109 
C       2.20932201      -1.52471332      -1.59731689 
C       2.47171941      -1.63005432      -2.65681997 
H       2.68155824       1.08922332       0.58881079 
H       2.21019243      -0.43471406       1.34935097 
H       3.79953649      -0.02942120      -1.17070683 
H       3.85407039      -1.40756482      -0.06504542 
H       1.82522346      -2.45874748      -1.04019263 
H       1.30586105      -0.84965803      -1.27740352 
H       3.96162654      -2.44555307      -2.55891112 
H       2.03393294      -2.39552964      -3.33138447 
H       2.97307399      -0.82373381      -3.24459376 
