17

C       1.05583550      -0.00589801      -0.21294802 
H       0.07503157      -0.16414051      -0.65717337 
H       1.45448780      -0.83828244       0.35229170 
C       1.70167436       1.18939024      -0.29688931 
C       2.33278636       1.86191301       1.63936108 
C       2.86277688       0.81279315       2.41467559 
O       4.32060296       0.55921561       2.12169471 
C       4.51261171      -0.32367528       0.97012493 
H       2.62884192       1.22298691      -0.76503699 
H       1.12023475       2.05695443      -0.49517242 
H       2.98249325       2.57434926       1.32321396 
H       1.42885633       2.22746163       1.95442253 
H       2.85963040       1.04033291       3.47586337 
H       2.32914971      -0.14957550       2.32006579 
H       3.88178185      -1.20617101       1.06018565 
H       4.24799202       0.21101842       0.05086520 
H       5.57064397      -0.60769305       0.94624091 
