21

O       0.90931752       2.88690663      -0.05080045 
C      -0.31544674       2.46859147      -0.32801884 
C      -0.75989896       1.14795466      -0.14789100 
C       0.04880680       0.06033255       0.43648235 
C       1.39297413      -0.21912715      -0.32307907 
C       2.41588638       0.83351875      -0.05265134 
C       3.49608317       1.07014182      -1.05813298 
C       2.99557746       1.44899856      -2.45326754 
H      -1.00177207       3.25112316      -0.64902823 
H      -1.73970951       0.90195833      -0.52670529 
H       0.31662212       0.27311361       1.47095993 
H      -0.53317689      -0.85653953       0.45047329 
H       1.76264491      -1.19761757       0.00558429 
H       1.18917088      -0.30303220      -1.40102755 
H       1.66563683       1.94318876      -0.04026536 
H       2.77008381       0.81090228       0.93679757 
H       4.16194659       1.86012242      -0.69130188 
H       4.13091973       0.16299531      -1.14380740 
H       2.36323444       2.33081134      -2.40635445 
H       3.83836292       1.66280580      -3.11528000 
H       2.41441484       0.63911756      -2.89921131 
