18

C       0.31108782       2.26897851       0.12258218 
H       0.29748179       3.13759149       0.77525324 
H       0.12499457       2.57324344      -0.92514088 
C      -0.34278570       1.17813570       0.52621744 
C       0.21466954      -0.11278723      -0.00417026 
O       0.00428243      -0.13384108      -1.54298072 
O      -1.45060199      -0.37220988      -1.74476425 
C       1.63291122      -0.26587204       0.25536561 
C       2.40715661       0.81083784      -0.16986036 
H      -0.33779138       1.07615435       1.69540908 
H      -1.46013193       1.18744144       0.27070083 
H      -0.37648587      -0.98278433       0.37430236 
H      -1.42804129      -0.33751685      -2.73434235 
H       1.75528264      -0.43326823       1.36954601 
H       1.98113097      -1.24973360      -0.19665484 
H       1.55591130       1.79998334       0.02098473 
H       3.36601265       0.98856592       0.40131446 
H       2.58362531       0.84848830      -1.20510189 
