14

C      -0.05086979      -0.56905781       0.05956163 
H      -0.28686173      -0.92965447      -0.93638753 
H      -0.30394370      -1.27893864       0.87759272 
C       1.19947904       0.21785934       0.21616606 
C       0.45816819       1.53526369       0.52498524 
C       0.59234199       2.66874695      -0.37908871 
C       0.39027707       3.93833797      -0.00900277 
H       1.85637931      -0.11048857       1.03333559 
H       1.80996183       0.27806686      -0.70829371 
H      -0.55521566       0.66469164       0.29477904 
H       0.37354236       1.76639625       1.55560651 
H       0.87789492       2.43261939      -1.41778543 
H       0.01854170       4.68286889      -0.71137996 
H       0.61138781       4.28962023       0.98770526 
