20

C       1.20599339       0.52867945       0.40937633 
H       0.48695777      -0.07853709       0.92630408 
H       0.90501110       1.49684156       0.05889536 
C       2.61180809       0.12317351       0.31746130 
C       2.86681457      -1.36688309       0.61853728 
C       2.04349302      -2.34192768      -0.21155049 
O       2.67348391      -2.68537478      -1.52015514 
C       2.40363625      -1.60405725      -2.67251483 
C       1.38589842      -1.56207476      -3.09296326 
H       3.02063880       0.38356777      -0.67397862 
H       3.23455022       0.72282506       1.01796066 
H       3.93137680      -1.58465135       0.48905698 
H       2.64362849      -1.54614879       1.67441046 
H       1.95678867      -3.30110735       0.30730311 
H       1.03447210      -1.95624909      -0.40029075 
H       2.90779526      -0.62206886      -2.33403223 
H       3.28477505      -1.99709256      -3.33414626 
H       0.50626156      -0.91385203      -1.79568710 
H       1.04405559      -0.71167124      -3.77678622 
H       0.75291562      -2.46946331      -3.24635572 
