22

C      -0.30921838       3.76109979      -0.88460619 
C       0.07889236       2.34323516      -1.08924883 
H       0.29395091       2.12494692      -2.14814593 
C      -0.64553377       1.34649291      -0.44183143 
C       0.08753044       0.03762063      -0.21991642 
C       1.50730889       0.10873993       0.19987718 
C       2.21153978       1.37672038       0.11995596 
C       3.53151198       1.38974306      -0.66105600 
H      -1.27479712       3.98649440      -1.34309140 
H       0.42391689       4.45393500      -1.32789493 
H      -0.39847156       3.99984861       0.17730208 
H      -1.02166425       1.71326915       0.54282290 
H      -1.62483898       1.09918639      -0.98929097 
H      -0.46619046      -0.62759711       0.48050553 
H      -0.06703757      -0.62996323      -1.09644288 
H       1.64899320      -0.40776538       1.21580748 
H       2.09038129      -0.74470451      -0.24747637 
H       1.29508972       2.12906629      -0.52125848 
H       2.36329544       1.86241728       1.05015621 
H       3.38631930       0.98591525      -1.67228575 
H       3.92164621       2.40668920      -0.74503194 
H       4.27836114       0.78485919      -0.16753094 
