23

O       0.47027424       3.14391673      -0.45353202 
C       1.50428859       2.11191783      -0.65055350 
C       1.52350394       1.15093846       0.49581811 
C       1.36166561      -0.32068900       0.27684388 
C       0.00283261       0.18850066       0.53430836 
H      -0.53022942       0.69971679      -0.29284790 
C      -0.94561999      -0.60188095       1.39542652 
C      -1.62589944      -1.81928942       0.69483838 
C      -0.65582702      -2.94748877       0.39496717 
H      -0.28657692       2.73580774       0.02892967 
H       1.33121636       1.58525027      -1.60391375 
H       2.43252455       2.69170785      -0.79028657 
H       2.80165896       1.19691115       0.76522628 
H       1.35117949       1.55538053       1.47162086 
H       1.55094094      -0.66808212      -0.70918326 
H       1.79444355      -0.95236285       1.02584320 
H      -0.42020649      -0.96933821       2.27813730 
H      -1.74644529       0.06458498       1.74545313 
H      -2.42855242      -2.18956540       1.34265280 
H      -2.10320030      -1.47874784      -0.23155487 
H      -0.14659399      -3.27258062       1.29830718 
H      -1.18269957      -3.81009228      -0.02534990 
H       0.10368261      -2.63552361      -0.32272017 
