14

C       1.10571059       0.74912577      -0.06277078 
H       0.92685094       0.63246519      -1.12932647 
H       0.13554520       0.86596746       0.41481679 
C       1.98377149      -0.20845606       0.54786401 
O       2.50416969      -1.18484784      -0.42870931 
C       2.43280903      -2.61541355       0.02881087 
C       3.48852660      -2.89509095       1.07030179 
H       2.44103962       0.79860402      -0.23940878 
H       1.56953993      -0.79508501       1.36661507 
H       1.42340772      -2.79607950       0.41444850 
H       2.58262861      -3.21773121      -0.87427825 
H       3.33887754      -2.27814854       1.95336194 
H       3.45195628      -3.93750016       1.37580630 
H       4.48194985      -2.69019751       0.68138285 
