14

O       4.16717829       0.52199545       1.86049375 
C       2.84547177       0.94078595       2.37246422 
C       2.24824042       1.94656942       1.58953457 
C       1.76762024       1.11459555      -0.32792718 
C       1.05422293      -0.02340270      -0.13139091 
H       0.25690012      -0.08404060       0.60396334 
H       1.22785984      -0.92290395      -0.71527178 
H       4.16761261       0.67315294       0.88496477 
H       2.21914678       0.03679038       2.44951568 
H       3.02506829       1.23189436       3.40620540 
H       1.30991857       2.22636589       1.84776373 
H       2.84741962       2.69731393       1.24154083 
H       1.27308543       1.96321458      -0.68824651 
H       2.75188563       1.03428429      -0.69835718 
